[submodule "project/openfast_toolbox"]
	path = project/openfast_toolbox
	url = https://github.com/OpenFAST/openfast_toolbox.git
